pcf
* control data
             restart          estimation
         7        25         5         0         4
         1         2              single               point         1         0         0
   5.000000E+00 2.000000E+00 3.000000E-01 3.000000E-02 10
   1.000000E+01   1.000000E+01   1.000000E-03
   1.000000E-01   3
   10000   1.000000E-03   4   4   1.000000E-03   4
         1         1         1
* lsqr
  1
  0.0001  0.0001  28.0  28
  0
* parameter groups
P  relative  1.0000000000E-02  0.0001  switch  2.0000000000E+00  parabolic
P5  relative  1.0000000000E-02  0.0001  switch  2.0000000000E+00  parabolic
G  relative  1.0000000000E-02  0.0001  switch  2.0000000000E+00  parabolic
G3  relative  1.0000000000E-02  0.0001  switch  2.0000000000E+00  parabolic
PHINT  relative  1.0000000000E-02  0.0001  switch  2.0000000000E+00  parabolic
* parameter data
G1                    none                  relative              2.7000000000E+01      1.0000000000E+01      5.0000000000E+01      G                     1.0000000000E+00      0.0000000000E+00      1
G2                    none                  relative              4.5000000000E+01      1.0000000000E+01      8.0000000000E+01      G                     1.0000000000E+00      0.0000000000E+00      1
G3                    none                  relative              4.0000000000E+00      5.0000000000E-01      8.0000000000E+00      G3                    1.0000000000E+00      0.0000000000E+00      1
P1D                   none                  relative              4.0000000000E+01      0.0000000000E+00      2.0000000000E+02      P                     1.0000000000E+00      0.0000000000E+00      1
P1V                   none                  relative              2.0000000000E+00      0.0000000000E+00      6.0000000000E+01      P                     1.0000000000E+00      0.0000000000E+00      1
P5                    none                  relative              5.7000000000E+02      1.0000000000E+02      9.9900000000E+02      P5                    1.0000000000E+00      0.0000000000E+00      1
PHI                   none                  relative              1.0000000000E+02      3.0000000000E+01      1.5000000000E+02      PHINT                 1.0000000000E+00      0.0000000000E+00      1
* observation groups
phenology
yield
lai
biomass
* observation data
 emergence_dap         7.000000       0.235702      phenology
 anthesis_dap          96.00000       0.235702      phenology
 maturity_dap          139.0000       0.235702      phenology
 productwtkgdmhanolos  6933.000       5.861741E-04  yield
 productunitweightgdm 4.2000000E-02   5.861741E-04  yield
 product_number_nom2   16392.00       5.861741E-04  yield
 productharvestindexr 0.4100000       5.861741E-04  yield
 maximumleafareaindex  6.100000       1.654768E-03  lai
 canopytopswtkgdmha    16796.00       4.377661E-05  biomass
 vegetativewtkgdmha    9863.000       4.377661E-05  biomass
 product_n_kgha        142.3000       5.861741E-04  yield
 product_n_            2.100000       5.861741E-04  yield
 cwad_2023012          2042.000       4.377661E-05  biomass
 laid_2023012          0.000000       1.654768E-03  lai
 laid_2023013          5.280000       1.654768E-03  lai
 laid_2023020          5.540000       1.654768E-03  lai
 laid_2023033          5.630000       1.654768E-03  lai
 laid_2023046          5.850000       1.654768E-03  lai
 laid_2023054          5.790000       1.654768E-03  lai
 cwad_2023065          15349.00       4.377661E-05  biomass
 laid_2023065          0.000000       1.654768E-03  lai
 laid_2023073          4.420000       1.654768E-03  lai
 laid_2023089          2.440000       1.654768E-03  lai
 cwad_2023100          16796.00       4.377661E-05  biomass
 laid_2023100          0.000000       1.654768E-03  lai
* model command line
py C:/pest18/run_dssat.py
* model input/output
./ENTRY2\WHCER048_CUL.TPL C:/DSSAT48/Genotype/WHCER048.CUL
./ENTRY2\OVERVIEW.ins C:/DSSAT48/Wheat/OVERVIEW.OUT
./ENTRY2\PlantGro.ins C:/DSSAT48/Wheat/PlantGro.OUT
